version 2
run General-0-20200403-20:00:43-12968
attr configname General
attr datetime 20200403-20:00:43
attr experiment General
attr inifile omnetpp.ini
attr iterationvars ""
attr iterationvarsf ""
attr measurement ""
attr network LTE_Scheduler
attr processid 12968
attr repetition 0
attr replication #0
attr resultdir results
attr runnumber 0
attr seedset 0
param LTE_Scheduler.User_1.generator.generatorPeriod "1 ms"
param LTE_Scheduler.User_2.generator.generatorPeriod "1 ms"
param LTE_Scheduler.User_3.generator.generatorPeriod "1 ms"
param LTE_Scheduler.User_1.fuzzy_timer.fuzzyPeriod "20 ms"
param LTE_Scheduler.User_2.fuzzy_timer.fuzzyPeriod "20 ms"
param LTE_Scheduler.User_3.fuzzy_timer.fuzzyPeriod "20 ms"

vector 0 LTE_Scheduler.User_1.queue "" ETV
vector 1 LTE_Scheduler.User_2.queue "" ETV
vector 2 LTE_Scheduler.User_3.queue "" ETV
0	23	0	1
0	34	1	1
0	72	2	4
0	81	3	4
0	90	4	4
0	126	5	7
0	135	6	7
0	144	7	7
0	180	8	10
0	189	9	10
0	204	10	10
0	243	11	13
0	252	12	13
0	261	13	13
0	297	14	16
0	306	15	16
0	315	16	16
0	351	17	19
0	360	18	19
0	369	19	19
0	414	20	22
0	423	21	22
0	432	22	22
0	468	23	25
0	477	24	25
0	486	25	25
0	522	26	28
0	531	27	28
0	540	28	28
1	45	0	3
1	54	1	3
1	99	2	7
1	108	3	7
1	153	4	11
1	162	5	11
1	216	6	15
1	225	7	15
1	270	8	19
1	279	9	19
1	324	10	23
1	333	11	23
1	378	12	27
1	393	13	27
1	441	14	31
1	450	15	31
1	495	16	35
1	504	17	35
1	549	18	39
1	558	19	39
2	63	0	5
2	117	1	10
2	171	2	15
2	234	3	20
2	288	4	25
2	342	5	30
2	405	6	35
2	459	7	40
2	513	8	45
2	567	9	50

